0,   100.00          / PSS/E-30.0    THU, JUN 02 2011  12:51
 POWER TECHNOLOGIES STANDARD BENCHMARK CASE
 1648 BUSES, 2602 BRANCHES
     1,'XXACAOCC    ',   0.0000,1,     0.000,     0.000,   1,   1,1.02586,  19.1725,   1
     2,'XXAXCCOA    ',   0.0000,1,     0.000,     0.000,   1,   1,0.98805,  13.0383,   1
     3,'XXOOYOAO    ',   0.0000,1,     0.000,     0.000,   1,   1,1.01993,  14.5083,   1
     4,'XXACCCCC    ',   0.0000,2,     0.000,     0.000,   1,   1,1.00145,   8.1565,   1
     5,'XXCAOOOO    ',   0.0000,1,     0.000,     0.000,   1,   1,0.99628,   2.9486,   1
     6,'XXACACAO    ',   0.0000,2,     0.000,     0.000,   1,   1,1.03000,   5.1056,   1
     7,'XXCOOOAO    ',   0.0000,1,     0.000,     0.000,   1,   1,1.00572,   5.3678,   1
     8,'XXAAOCAO    ',   0.0000,1,     0.000,     0.000,   1,   1,1.01413,   7.7940,   1
     9,'XXACACAO    ',   0.0000,1,     0.000,     0.000,   1,   1,1.00493,   5.6597,   1
    10,'XXAAOCAO    ',   0.0000,1,     0.000,     0.000,   1,   1,1.02249,   4.7072,   1
    11,'XXCOOOAO    ',   0.0000,1,     0.000,     0.000,   1,   1,1.02432,   3.7644,   1
    12,'XXCOOYCC    ',   0.0000,1,     0.000,     0.000,   1,   1,1.01764,   2.1019,   1
    13,'XXCOOYCC    ',   0.0000,1,     0.000,     0.000,   1,   1,0.99609,   2.9283,   1
    14,'XXAAOCOA    ',   0.0000,1,     0.000,     0.000,   1,   1,0.99738,   2.9193,   1
    15,'XXAAOCOA    ',   0.0000,2,     0.000,     0.000,   1,   1,1.02576,   2.0357,   1
    16,'XXOOOCAO    ',   0.0000,1,     0.000,     0.000,   1,   1,0.99690,   3.0574,   1
    17,'XXAXCCOA    ',   0.0000,1,     0.000,     0.000,   1,   1,1.02286,  16.2665,   1
    18,'XXCCAAOO    ',   0.0000,2,     0.000,     0.000,   1,   1,0.98263,   8.4413,   1
    19,'XXOOOOOC    ',   0.0000,1,     0.000,     0.000,   1,   1,1.00693,  14.7143,   1
    20,'XXOOOCAO    ',   0.0000,1,     0.000,     0.000,   1,   1,0.99677,   5.4517,   1
    21,'XXAAAOOC    ',   0.0000,2,     0.000,     0.000,   1,   1,1.00799,   6.5740,   1
    22,'XXCACOCA    ',   0.0000,1,     0.000,     0.000,   2,   1,0.97672,   5.2465,   1
    23,'XXCACOCA    ',   0.0000,1,     0.000,     0.000,   2,   1,1.00290,   3.7381,   1
    24,'XXCAAOAO    ',   0.0000,1,     0.000,     0.000,   2,   1,0.97984,   6.5639,   1
    25,'XXCCAAAC    ',   0.0000,1,     0.000,     0.000,   2,   1,1.02964,  12.4634,   1
    26,'XXOACACC    ',   0.0000,2,     0.000,     0.000,   2,   1,1.05000,  13.3079,   1
    27,'XXOAAOOA    ',   0.0000,2,     0.000,     0.000,   2,   1,1.05000,   5.9273,   1
    28,'XXCOOOCC    ',   0.0000,2,     0.000,     0.000,   2,   1,0.98736,   1.9457,   1
    29,'XXOAOOCA    ',   0.0000,1,     0.000,     0.000,   2,   1,1.02297,  10.7477,   1
    30,'XXAYOOOC    ',   0.0000,1,     0.000,     0.000,   2,   1,1.02299,  10.9986,   1
    31,'XXCCOAOA    ',   0.0000,1,     0.000,     0.000,   2,   1,1.02536,  10.9468,   1
    32,'XXCCOAOA    ',   0.0000,1,     0.000,     0.000,   2,   1,1.04281,  10.4999,   1
    33,'XXCCOACO    ',   0.0000,1,     0.000,     0.000,   2,   1,0.99862,  11.9607,   1
    34,'XXCCOACO    ',   0.0000,1,     0.000,     0.000,   2,   1,1.01838,   9.7256,   1
    35,'XXOOACCC    ',   0.0000,1,     0.000,     0.000,   2,   1,1.00853,   1.4406,   1
    36,'XXACAOCA    ',   0.0000,1,     0.000,     0.000,   2,   1,1.00871,   2.4136,   1
    37,'XXCAOCCC    ',   0.0000,1,     0.000,     0.000,   2,   1,1.01967,   8.2655,   1
    38,'XXCAOCCC    ',   0.0000,1,     0.000,     0.000,   2,   1,1.03112,   8.1926,   1
    39,'XXAAOCOO    ',   0.0000,1,     0.000,     0.000,   2,   1,1.01716,   9.0716,   1
    40,'XXAAOCOO    ',   0.0000,1,     0.000,     0.000,   2,   1,1.04374,   8.4387,   1
    41,'XXCAOOOC    ',   0.0000,2,     0.000,     0.000,   2,   1,1.03000,  15.1445,   1
    42,'XXCAOOOC    ',   0.0000,1,     0.000,     0.000,   2,   1,1.02568,  13.2575,   1
    43,'XXOOCAAO    ',   0.0000,1,     0.000,     0.000,   2,   1,1.05312,  12.9929,   1
    44,'XXXAOCAA    ',   0.0000,2,     0.000,     0.000,   2,   1,1.05000,  12.0544,   1
    45,'XXCCOACC    ',   0.0000,1,     0.000,     0.000,   2,   1,1.02991,  12.8523,   1
    46,'XXOCAOOO    ',   0.0000,1,     0.000,     0.000,   2,   1,1.05088,  12.3653,   1
    47,'XXOCOCOC    ',   0.0000,1,     0.000,     0.000,   2,   1,0.99458,   2.3710,   1
    48,'XXCAOCOC    ',   0.0000,1,     0.000,     0.000,   2,   1,1.00838,   7.6494,   1
    49,'XXAA.COA    ',   0.0000,1,     0.000,     0.000,   2,   1,1.05141,  12.3024,   1
    50,'XXCOOACC    ',   0.0000,1,     0.000,     0.000,   2,   1,1.00932,   7.8549,   1
    51,'XXCOCOCC    ',   0.0000,2,     0.000,     0.000,   3,   1,1.03000,  16.9918,   1
    52,'XXCOAOCC    ',   0.0000,1,     0.000,     0.000,   3,   1,0.98623,  13.0961,   1
    53,'XXCAOCCC    ',   0.0000,2,     0.000,     0.000,   3,   1,1.01467,  13.4586,   1
    54,'XXC.OOOO    ',   0.0000,2,     0.000,     0.000,   3,   1,1.01134,   9.9230,   1
    55,'XXC.OOOO    ',   0.0000,1,     0.000,     0.000,   3,   1,1.01680,  11.8737,   1
    56,'XXC.OOOO    ',   0.0000,2,     0.000,     0.000,   3,   1,1.02230,   6.2042,   1
    57,'XXOAYCCA    ',   0.0000,2,     0.000,     0.000,   3,   1,1.00932,   4.5269,   1
    58,'XXOAOOOA    ',   0.0000,2,     0.000,     0.000,   3,   1,0.98838,   5.4243,   1
    59,'XXOCAAOO    ',   0.0000,1,     0.000,     0.000,   4,   1,1.01278,   4.9646,   1
    60,'XXOCAAOO    ',   0.0000,1,     0.000,     0.000,   4,   1,1.02044,   3.6872,   1
    61,'XXOCAAOO    ',   0.0000,1,     0.000,     0.000,   4,   1,0.99185,   3.9327,   1
    62,'XXCCOOCA    ',   0.0000,1,     0.000,     0.000,   4,   1,1.02238,  14.6670,   1
    63,'XXCAOCAO    ',   0.0000,2,     0.000,     0.000,   4,   1,1.03000,  15.6742,   1
    64,'XXCCCOCY    ',   0.0000,1,     0.000,     0.000,   4,   1,1.00956,  13.4280,   1
    65,'XXCOAOAO    ',   0.0000,1,     0.000,     0.000,   4,   1,0.99592,   4.5627,   1
    66,'XXCACAAO    ',   0.0000,1,     0.000,     0.000,   4,   1,1.00522,   7.5400,   1
    67,'XXACOCOO    ',   0.0000,1,     0.000,     0.000,   4,   1,0.99120,  11.7111,   1
    68,'XXCACCOA    ',   0.0000,1,     0.000,     0.000,   4,   1,0.99622,   6.2706,   1
    69,'XXACOCOO    ',   0.0000,2,     0.000,     0.000,   4,   1,1.01059,   8.3306,   1
    70,'XXAAOOCA    ',   0.0000,1,     0.000,     0.000,   4,   1,0.99478,   6.9261,   1
    71,'XXCOOOOA    ',   0.0000,1,     0.000,     0.000,   4,   1,0.99420,  13.7630,   1
    72,'XXAAACOA    ',   0.0000,1,     0.000,     0.000,   4,   1,1.02820,   6.9861,   1
    73,'XXOACAOC    ',   0.0000,1,     0.000,     0.000,   4,   1,1.01860,   8.9525,   1
    74,'XXOOAOAC    ',   0.0000,1,     0.000,     0.000,   4,   1,1.01064,  11.3847,   1
    75,'XXOOAOAC    ',   0.0000,1,     0.000,     0.000,   4,   1,0.99725,   9.6934,   1
    76,'XXOOOOAC    ',   0.0000,1,     0.000,  -100.000,   5,   1,1.02488,  13.3904,   1
    77,'XXOOOOAC    ',   0.0000,1,     0.000,     0.000,   5,   1,1.04082,  11.4085,   1
    78,'XXOOOOAC    ',   0.0000,1,     0.000,     0.000,   5,   1,1.03853,   9.0456,   1
    79,'XXC.OOOO    ',   0.0000,2,     0.000,     0.000,   5,   1,1.03043,  11.3128,   1
    80,'XXCCAOOA    ',   0.0000,2,     0.000,     0.000,   5,   1,1.02798,  11.2531,   1
    81,'XXACOCOA    ',   0.0000,2,     0.000,     0.000,   5,   1,1.02000,   9.8193,   1
    82,'XXOAACAO    ',   0.0000,1,     0.000,     0.000,   5,   1,1.01392,  10.7521,   1
    83,'XXCA.COC    ',   0.0000,1,     0.000,     0.000,   5,   1,0.99548,   3.6108,   1
    84,'XXAOAAOC    ',   0.0000,2,     0.000,     0.000,   5,   1,1.02988,  11.0372,   1
    85,'XXCCOOOO    ',   0.0000,1,     0.000,     0.000,   5,   1,1.03641,  12.5969,   1
    86,'XXOAACCC    ',   0.0000,2,     0.000,     0.000,   5,   1,1.03000,  13.8661,   1
    87,'XXCAOOAA    ',   0.0000,1,     0.000,     0.000,   5,   1,1.03345,  12.6879,   1
    88,'XXACAACX    ',   0.0000,1,     0.000,     0.000,   5,   1,1.02987,  10.9192,   1
    89,'CXOCOOAO    ',   0.0000,1,     0.000,     0.000,   6,   1,1.03159,  24.6020,   1
    90,'CXACOACY    ',   0.0000,1,     0.000,     0.000,   6,   1,1.03640,  26.6645,   1
    91,'CXOAAOAO    ',   0.0000,2,     0.000,     0.000,   6,   1,1.05064,  27.8074,   1
    92,'CXCOAOCO    ',   0.0000,1,     0.000,     0.000,   6,   1,1.02900,  26.1971,   1
    93,'CXCCOCYC    ',   0.0000,1,     0.000,     0.000,   6,   1,1.01613,  19.8010,   1
    94,'CXACOOCA    ',   0.0000,1,     0.000,     0.000,   6,   1,1.03025,  21.2913,   1
    95,'CXCACOAC    ',   0.0000,1,     0.000,     0.000,   6,   1,0.99877,  15.2831,   1
    96,'CXCCACAC    ',   0.0000,2,     0.000,     0.000,   6,   1,1.03000,  18.7152,   1
    97,'CXCCACAC    ',   0.0000,1,     0.000,     0.000,   6,   1,1.02702,  18.7832,   1
    98,'CXCACACO    ',   0.0000,2,     0.000,     0.000,   6,   1,0.99874,  14.8890,   1
    99,'CXAOOCCA    ',   0.0000,1,     0.000,     0.000,   6,   1,1.02099,  14.5696,   1
   100,'CXCCOOCO    ',   0.0000,1,     0.000,     0.000,   6,   1,0.97187,   6.6253,   1
   101,'CXCOOCOC    ',   0.0000,1,     0.000,     0.000,   6,   1,1.00727,  21.1438,   1
   102,'CXCAOAAO    ',   0.0000,1,     0.000,     0.000,   6,   1,1.01996,  16.6183,   1
   103,'CXOCOCOA    ',   0.0000,1,     0.000,     0.000,   6,   1,1.02601,  30.3094,   1
   104,'CXCOCAAO    ',   0.0000,2,     0.000,     0.000,   6,   1,1.03000,  30.9111,   1
   105,'CXCOCAAO    ',   0.0000,1,     0.000,     0.000,   6,   1,1.05743,  28.9815,   1
   106,'CXCACCCO    ',   0.0000,1,     0.000,     0.000,   6,   1,1.03217,  23.5170,   1
   107,'CXCOOCCC    ',   0.0000,2,     0.000,     0.000,   7,   1,1.03000,   8.3995,   1
   108,'CXCOOCCC    ',   0.0000,2,     0.000,     5.400,   7,   1,1.03000,   6.8279,   1
   109,'CXCCOOCC    ',   0.0000,2,     0.000,     0.000,   7,   1,1.03000,  13.5172,   1
   110,'CXOCAOOO    ',   0.0000,1,     0.000,     0.000,   7,   1,1.01803,  10.0070,   1
   111,'CXOCAOOO    ',   0.0000,1,     0.000,     0.000,   7,   1,1.03000,   4.2717,   1
   112,'CXCCAAOO    ',   0.0000,1,     0.000,     0.000,   7,   1,1.02032,  10.7667,   1
   113,'CXCOOCOO    ',   0.0000,1,     0.000,     0.000,   7,   1,1.02980,   0.3504,   1
   114,'CXAOCOAA    ',   0.0000,1,     0.000,     0.000,   7,   1,1.02472,   7.5595,   1
   115,'CXCCAAOO    ',   0.0000,2,     0.000,     0.000,   7,   1,1.03000,  10.5566,   1
   116,'CXAACAAO    ',   0.0000,1,     0.000,     0.000,   7,   1,0.96010,  -6.0845,   1
   117,'CXOOOCCO    ',   0.0000,2,     0.000,     0.000,   7,   1,1.00283,   2.1436,   1
   118,'CXCCAAOO    ',   0.0000,2,     0.000,     0.000,   7,   1,1.02957,  -4.1874,   1
   119,'CXCOOCAA    ',   0.0000,1,     0.000,     0.000,   7,   1,0.99967,  -2.7443,   1
   120,'CXCOCAOC    ',   0.0000,1,     0.000,     0.000,   7,   1,1.01406,  -3.8789,   1
   121,'CXCCOCAO    ',   0.0000,1,     0.000,     0.000,   7,   1,1.01759,  -4.4580,   1
   122,'CXCOCOCC    ',   0.0000,2,     0.000,     0.000,   7,   1,1.02854,  -2.6859,   1
   123,'CXOOOCOO    ',   0.0000,1,     0.000,     0.000,   7,   1,1.05403,   1.5847,   1
   124,'CXOCCCAC    ',   0.0000,1,     0.000,     0.000,   7,   1,1.01271,   9.9752,   1
   125,'CXCOOCOO    ',   0.0000,1,     0.000,     0.000,   7,   1,1.00001,   2.4461,   1
   126,'CXCCAAOO    ',   0.0000,1,     0.000,     0.000,   7,   1,0.96310,  -1.7648,   1
   127,'CXCCOYCA    ',   0.0000,1,     0.000,     0.000,   8,   1,1.02951,  10.7861,   1
   128,'CXOCCOOO    ',   0.0000,2,     0.000,     0.000,   8,   1,0.99638,   9.2600,   1
   129,'CXOAOCOO    ',   0.0000,1,     0.000,     0.000,   8,   1,1.01120,   9.5534,   1
   130,'CXOCOCOC    ',   0.0000,1,     0.000,   -50.000,   8,   1,1.01547,  13.4899,   1
   131,'CXCOXCOO    ',   0.0000,2,     0.000,     5.400,   8,   1,1.03000,   9.8140,   1
   132,'CXAOOCCC    ',   0.0000,1,     0.000,     0.000,   8,   1,0.99198,   5.2109,   1
   133,'CXOCYAAC    ',   0.0000,2,     0.000,    20.000,   8,   1,1.00785,   4.1826,   1
   134,'CXOCAOCA    ',   0.0000,2,     0.000,    10.000,   8,   1,0.99893,   2.8293,   1
   135,'CXCCCOAC    ',   0.0000,1,     0.000,     0.000,   8,   1,1.03028,   8.1556,   1
   136,'CXOCOAOO    ',   0.0000,2,     0.000,     5.000,   8,   1,1.03000,  12.2512,   1
   137,'CXCACAAA    ',   0.0000,2,     0.000,     5.000,   8,   1,1.02000,   9.8224,   1
   138,'CXOOOCCC    ',   0.0000,1,     0.000,     0.000,   8,   1,1.00589,   3.8858,   1
   139,'CXOCZOAO    ',   0.0000,1,     0.000,    10.000,   8,   1,1.03022,   8.2680,   1
   140,'CXOCZOAO    ',   0.0000,1,     0.000,     0.000,   8,   1,1.01819,  11.9580,   1
   141,'CXCOOOAO    ',   0.0000,2,     0.000,     0.000,   8,   1,1.03000,  11.1435,   1
   142,'CXOOCOCC    ',   0.0000,1,     0.000,   -25.000,   8,   1,1.03068,  10.9478,   1
   143,'CXACACOO    ',   0.0000,1,     0.000,     0.000,   8,   1,1.02267,   9.8098,   1
   144,'CXCOOCCC    ',   0.0000,1,     0.000,     0.000,   8,   1,1.00191,   9.0467,   1
   145,'CXCCOOAO    ',   0.0000,1,     0.000,     0.000,   9,   1,0.99187,   9.3435,   1
   146,'CXCACAAO    ',   0.0000,1,     0.000,     0.000,   9,   1,0.98517,  10.0077,   1
   147,'CXAXCCOA    ',   0.0000,1,     0.000,     0.000,   9,   1,1.02047,  14.3195,   1
   148,'CXAOCOCC    ',   0.0000,1,     0.000,     0.000,   9,   1,1.00961,   8.4323,   1
   149,'CXCOCOOC    ',   0.0000,2,     0.000,     0.000,   9,   1,1.03429,  32.3040,   1
   150,'CXYCOOAO    ',   0.0000,1,     0.000,     1.200,   9,   1,1.02311,  12.8804,   1
   151,'CXCACAOO    ',   0.0000,1,     0.000,  -100.000,   9,   1,1.03380,  26.7019,   1
   152,'CXCOOCAA    ',   0.0000,1,     0.000,     0.000,   9,   1,1.05350,  17.8235,   1
   153,'CXCACCOA    ',   0.0000,1,     0.000,     0.000,   9,   1,1.04380,  15.8653,   1
   154,'CXAOOOCA    ',   0.0000,1,     0.000,     0.000,   9,   1,1.03897,  14.5438,   1
   155,'CXOOAAOO    ',   0.0000,1,     0.000,     0.000,   9,   1,1.04234,  13.8284,   1
   156,'CXOCAAOO    ',   0.0000,1,     0.000,     0.000,   9,   1,1.04693,  16.7646,   1
   157,'CXOOOOOO    ',   0.0000,1,     0.000,     0.000,   9,   1,1.05365,  21.3963,   1
   158,'CXOOCOCO    ',   0.0000,1,     0.000,     0.000,   9,   1,1.04786,  23.7387,   1
   159,'CXACOOCC    ',   0.0000,1,     0.000,     0.000,   9,   1,1.03896,  19.3315,   1
   160,'CXOOCAAC    ',   0.0000,1,     0.000,     0.000,   9,   1,1.04175,  28.0666,   1
   161,'CXAOCOAA    ',   0.0000,1,     0.000,     0.000,   9,   1,1.03009,  18.1153,   1
   162,'CXOAOCAA    ',   0.0000,1,     0.000,     0.000,   9,   1,1.02417,  19.3936,   1
   163,'CXOAOCAA    ',   0.0000,1,     0.000,   -16.500,   9,   1,1.02395,  17.3343,   1
   164,'CXOCOCCC    ',   0.0000,2,     0.000,     0.000,   9,   1,1.04500,  29.0030,   1
   165,'CXCOAAAA    ',   0.0000,1,     0.000,     0.000,   9,   1,1.01007,  15.9444,   1
   166,'CXCCOCAA    ',   0.0000,1,     0.000,     0.000,   9,   1,1.02094,  22.0037,   1
   167,'CXACOCCA    ',   0.0000,2,     0.000,     0.000,   9,   1,1.00000,  14.9229,   1
   168,'CXOCAAOO    ',   0.0000,1,     0.000,     0.000,   9,   1,1.00721,  17.6056,   1
   169,'CXOCACOO    ',   0.0000,1,     0.000,     0.000,   9,   1,1.00321,  15.6635,   1
   170,'CXYOOAAO    ',   0.0000,2,     0.000,     0.000,   9,   1,1.03000,  78.8547,   1
   171,'CXAOOOAO    ',   0.0000,2,     0.000,     3.000,   9,   1,1.07481,  20.0089,   1
   172,'CXAXCCOA    ',   0.0000,1,     0.000,     0.000,   9,   1,1.00639,  13.9789,   1
   173,'CXAXCCCO    ',   0.0000,1,     0.000,     0.000,   9,   1,1.01528,  11.1105,   1
   174,'CXAXCCCO    ',   0.0000,1,     0.000,     0.000,   9,   1,1.01241,  14.9154,   1
   175,'CXCAOOOO    ',   0.0000,1,     0.000,     0.000,   9,   1,0.96451,  12.0085,   1
   176,'CXAAOCCO    ',   0.0000,1,     0.000,     0.000,   9,   1,1.02892,  17.3220,   1
   177,'CXCCAOOA    ',   0.0000,2,     0.000,     0.000,   9,   1,1.03000,  13.6664,   1
   178,'CXCCAACA    ',   0.0000,1,     0.000,     0.000,   9,   1,0.99809,   9.9954,   1
   179,'CXAAAAOA    ',   0.0000,1,     0.000,     1.700,   9,   1,1.03387,  21.3575,   1
   180,'CXAAAAOA    ',   0.0000,1,     0.000,     0.000,   9,   1,1.02862,  24.9345,   1
   181,'CXCAACOC    ',   0.0000,2,     0.000,     0.000,   9,   1,1.06126,  19.4703,   1
   182,'CXCAACOC    ',   0.0000,2,     0.000,     0.000,   9,   1,1.04137,  21.3573,   1
   183,'CXCAOOAA    ',   0.0000,2,     0.000,     0.000,   9,   1,1.05841,  18.7997,   1
   184,'CXOAAOOC    ',   0.0000,1,     0.000,     0.000,   9,   1,1.06705,  21.2077,   1
   185,'CXOAAOOC    ',   0.0000,1,     0.000,     0.000,   9,   1,1.04659,  24.3412,   1
   186,'CXAAOOOA    ',   0.0000,1,     0.000,     0.000,   9,   1,1.03089,  21.4601,   1
   187,'CXCAOAOO    ',   0.0000,2,     0.000,     2.700,   9,   1,1.02687,  20.2729,   1
   188,'CXCACAOO    ',   0.0000,2,     0.000,     0.000,   9,   1,1.05311,  26.0072,   1
   189,'CXOCOCCC    ',   0.0000,2,     0.000,     0.000,   9,   1,1.04500,  28.6254,   1
   190,'CXAACCYC    ',   0.0000,1,     0.000,     0.000,   9,   1,1.00266,  31.3597,   1
   191,'CXCOOOCO    ',   0.0000,1,     0.000,     0.000,   9,   1,1.02490,  23.2920,   1
   192,'CXOOCOCA    ',   0.0000,1,     0.000,     0.000,   9,   1,1.03985,  22.5678,   1
   193,'CXCOCOAC    ',   0.0000,2,     0.000,     0.000,   9,   1,1.02182,  25.4711,   1
   194,'CXCOAOCA    ',   0.0000,1,     0.000,     0.000,   9,   1,1.04668,  41.0928,   1
   195,'CXCOAOCA    ',   0.0000,1,     0.000,     0.000,   9,   1,1.03377,  40.6914,   1
   196,'CXCCAAOA    ',   0.0000,2,     0.000,     0.000,   9,   1,1.04000,  47.2617,   1
   197,'CXCCAAOA    ',   0.0000,2,     0.000,     0.000,   9,   1,1.03000,  46.0863,   1
   198,'CXOCCOCC    ',   0.0000,1,     0.000,     0.000,   9,   1,1.01663,  37.2301,   1
   199,'CXCAOCOO    ',   0.0000,1,     0.000,    10.800,   9,   1,1.03633,  26.5759,   1
   200,'CXOOAAAO    ',   0.0000,1,     0.000,     0.000,   9,   1,1.05933,  29.9659,   1
   201,'CXOOAAAO    ',   0.0000,1,     0.000,     0.000,   9,   1,1.03430,  32.4870,   1
   202,'CXCACOOA    ',   0.0000,2,     0.000,     0.000,   9,   1,1.01124,  14.5608,   1
   203,'CXCACOOA    ',   0.0000,1,     0.000,     0.000,   9,   1,1.00570,  19.5438,   1
   204,'CXCCACOC    ',   0.0000,2,     0.000,     0.000,   9,   1,1.04557,  24.2993,   1
   205,'CXCCACOC    ',   0.0000,1,     0.000,     0.000,   9,   1,1.02513,  26.3327,   1
   206,'CXCAOCCO    ',   0.0000,2,     0.000,    21.000,   9,   1,1.03000,  19.2187,   1
   207,'CXOOAAOA    ',   0.0000,1,     0.000,     0.000,   9,   1,1.01994,  19.7283,   1
   208,'CXOOAAOA    ',   0.0000,1,     0.000,     0.000,   9,   1,1.00992,  20.9797,   1
   209,'CXOOOCCC    ',   0.0000,1,     0.000,     0.000,   9,   1,1.00022,  47.3455,   1
   210,'CXACACOA    ',   0.0000,1,     0.000,     0.000,   9,   1,0.97046,  49.4451,   1
   211,'CXAOOOAA    ',   0.0000,2,     0.000,     0.000,   9,   1,0.95163,  52.3195,   1
   212,'CXOOOOCA    ',   0.0000,1,     0.000,     0.000,   9,   1,0.97690,  59.4702,   1
   213,'CXAOOCCO    ',   0.0000,1,     0.000,     0.000,   9,   1,0.99652,  63.1215,   1
   214,'CXCA.OCC    ',   0.0000,2,     0.000,     0.000,   9,   1,1.03000,  68.2103,   1
   215,'CXCA.OCC    ',   0.0000,1,     0.000,     0.000,   9,   1,1.00488,  68.2103,   1
   216,'CXCA.OCC    ',   0.0000,2,     0.000,     0.000,   9,   1,1.03000,  68.7817,   1
   217,'CXOCAOAC    ',   0.0000,2,     0.000,     0.000,   9,   1,1.01335,  57.7239,   1
   218,'CXCOACOC    ',   0.0000,1,     0.000,     0.000,   9,   1,1.00534,  61.7009,   1
   219,'CXCCAAOO    ',   0.0000,2,     0.000,   -30.000,   9,   1,1.00511,  59.9122,   1
   220,'CXCCAAOO    ',   0.0000,1,     0.000,     0.000,   9,   1,1.00934,  61.2054,   1
   221,'CXCAAACA    ',   0.0000,1,     0.000,   -12.000,   9,   1,1.02503,  73.7533,   1
   222,'CXCCAOCA    ',   0.0000,1,     0.000,     5.400,   9,   1,1.05105,  27.2437,   1
   223,'CXAOAOCA    ',   0.0000,1,     0.000,     0.000,   9,   1,1.00358,  33.3915,   1
   224,'CXOCCCAC    ',   0.0000,1,     0.000,     5.400,   9,   1,1.01576,  28.3535,   1
   225,'CXAAOCAA    ',   0.0000,1,     0.000,     0.000,   9,   1,1.03101,  43.9095,   1
   226,'CXAOYCCA    ',   0.0000,2,     0.000,     0.000,   9,   1,1.04689,  27.0327,   1
   227,'CXCOAOCO    ',   0.0000,1,     0.000,     0.000,   9,   1,1.03326,  25.5012,   1
   228,'CXCCCCOC    ',   0.0000,1,     0.000,     0.000,   9,   1,1.03353,  25.8668,   1
   229,'CXCCCCOC    ',   0.0000,1,     0.000,    -5.000,   9,   1,1.04955,  25.3911,   1
   230,'CXOCOOAC    ',   0.0000,1,     0.000,     0.000,   9,   1,1.02776,  25.1892,   1
   231,'CXOCOOOO    ',   0.0000,1,     0.000,     0.000,   9,   1,1.00420,  10.7921,   1
   232,'CXCOCOCA    ',   0.0000,1,     0.000,     0.000,   9,   1,0.98097,  10.8123,   1
   233,'CXAYOCCO    ',   0.0000,1,     0.000,     0.000,   9,   1,1.03520,  15.3713,   1
   234,'CXOACAAO    ',   0.0000,1,     0.000,     0.000,   9,   1,1.06675,  18.9499,   1
   235,'CXOCOOOO    ',   0.0000,1,     0.000,     0.000,   9,   1,1.01720,  16.3454,   1
   236,'CXCOAOCO    ',   0.0000,1,     0.000,     0.000,   9,   1,1.05058,  24.6950,   1
   237,'CXO.COOC    ',   0.0000,2,     0.000,     0.000,   9,   1,1.03326,  45.1757,   1
   238,'CXCOCOOA    ',   0.0000,1,     0.000,     0.000,   9,   1,0.99234,  46.2753,   1
   239,'CXCOCOOA    ',   0.0000,1,     0.000,     0.000,   9,   1,1.02221,  48.8844,   1
   240,'CXO.COOC    ',   0.0000,1,     0.000,     0.000,   9,   1,1.03038,  44.6933,   1
   241,'CXCOOACC    ',   0.0000,1,     0.000,     0.000,   9,   1,0.98455,   7.9488,   1
   242,'CXCCCOCC    ',   0.0000,1,     0.000,     0.000,   9,   1,1.00684,  13.7924,   1
   243,'CXO.COOC    ',   0.0000,2,     0.000,  -125.000,   9,   1,1.03500,  43.9439,   1
   244,'CXOOOOAC    ',   0.0000,1,     0.000,     0.000,   9,   1,1.03531,  22.7843,   1
   245,'CXOOOOOO    ',   0.0000,1,     0.000,     0.000,   9,   1,1.03303,  22.4210,   1
   246,'CXAAAAOA    ',   0.0000,1,     0.000,   -75.000,   9,   1,1.02660,  26.4369,   1
   247,'CXAAOAOC    ',   0.0000,1,     0.000,     0.000,   9,   1,1.03169,  20.3088,   1
   248,'CXAAOAOC    ',   0.0000,1,     0.000,     0.000,   9,   1,1.07835,  19.7553,   1
   249,'XXCCOOAO    ',   0.0000,1,     0.000,     0.000,  10,   1,0.98393,   7.3756,   1
   250,'XXOOCOOC    ',   0.0000,1,     0.000,     0.000,  10,   1,1.01043,   1.4616,   1
   251,'XXOACOOC    ',   0.0000,1,     0.000,     0.000,  10,   1,1.00088,   6.9056,   1
   252,'XXOACOOC    ',   0.0000,1,     0.000,     0.000,  10,   1,1.02006,   4.9634,   1
   253,'XXAOACOO    ',   0.0000,2,     0.000,     0.000,  10,   1,1.03000,   6.8111,   1
   254,'XXAAAOCO    ',   0.0000,1,     0.000,     0.000,  10,   1,0.98434,   2.4723,   1
   255,'XXAOAAOO    ',   0.0000,1,     0.000,     0.000,  10,   1,0.97158,   1.8626,   1
   256,'XXCAAACC    ',   0.0000,1,     0.000,     0.000,  10,   1,1.00569,   1.7465,   1
   257,'XXAOOCCA    ',   0.0000,1,     0.000,     0.000,  10,   1,1.01348,   4.5200,   1
   258,'XXOAOACA    ',   0.0000,1,     0.000,     0.000,  10,   1,1.00739,   0.2177,   1
   259,'XXOOCOOC    ',   0.0000,1,     0.000,     0.000,  10,   1,0.99450,  -0.1877,   1
   260,'XXCOAACA    ',   0.0000,1,     0.000,     0.000,  10,   1,1.00851,   4.1284,   1
   261,'XXCCOCAA    ',   0.0000,1,     0.000,     0.000,  10,   1,1.00224,   0.9554,   1
   262,'XXOCOOAO    ',   0.0000,1,     0.000,     0.000,  10,   1,1.00740,  -0.4395,   1
   263,'XXOCOOAO    ',   0.0000,1,     0.000,     0.000,  10,   1,0.99755,   0.9254,   1
   264,'XXOOCOOA    ',   0.0000,1,     0.000,     0.000,  10,   1,0.98682,   1.6479,   1
   265,'XXOAOCOO    ',   0.0000,2,     0.000,     0.000,  10,   1,1.02481,   1.8621,   1
   266,'XXACOACA    ',   0.0000,1,     0.000,     0.000,  10,   1,1.01977,   0.4250,   1
   267,'XXOOOCOA    ',   0.0000,1,     0.000,     0.000,  10,   1,1.02341,   6.4065,   1
   268,'XXOCOCOC    ',   0.0000,1,     0.000,     0.000,  10,   1,1.00715,   0.4980,   1
   269,'XXOOOCCC    ',   0.0000,1,     0.000,     0.000,  10,   1,0.99708,   2.7558,   1
   270,'XXACCOCA    ',   0.0000,1,     0.000,     0.000,  10,   1,1.02120,   1.3754,   1
   271,'XXACAOCC    ',   0.0000,2,     0.000,   -75.000,  11,   1,1.03000,  19.2109,   1
   272,'XXOAOOAC    ',   0.0000,2,     0.000,     0.000,  16,   1,0.97182, -12.0483,   1
   273,'XXCAOOCO    ',   0.0000,1,     0.000,     0.000,  16,   1,1.00246,  -7.8879,   1
   274,'XXCAOOCO    ',   0.0000,2,     0.000,     0.000,  16,   1,1.00000, -10.7234,   1
   275,'XXCAOCXX    ',   0.0000,1,     0.000,     0.000,  16,   1,0.94432,  -9.9775,   1
   276,'XXOOCCOO    ',   0.0000,1,     0.000,     0.000,  16,   1,1.01828,  -9.4216,   1
   277,'XXOOCCOO    ',   0.0000,2,     0.000,     0.000,  16,   1,1.01478,  -6.8522,   1
   278,'XXOACOAO    ',   0.0000,1,     0.000,     0.000,  16,   1,0.95468,  -7.1596,   1
   279,'XXOCCCOA    ',   0.0000,1,     0.000,     5.400,  16,   1,0.95353,  -6.8394,   1
   280,'XXCCCCOO    ',   0.0000,1,     0.000,     0.000,  16,   1,1.02948,  -7.5808,   1
   281,'XXCCCOAX    ',   0.0000,2,     0.000,     0.000,  16,   1,1.01102,  -4.1447,   1
   282,'XXAAOCOC    ',   0.0000,1,     0.000,     0.000,  16,   1,0.98003,  -3.5875,   1
   283,'XXAAOCOC    ',   0.0000,2,     0.000,     0.000,  16,   1,0.97444,  -5.6071,   1
   284,'XXOAOAOC    ',   0.0000,1,     0.000,     0.000,  16,   1,0.95031,  -8.2002,   1
   285,'XXA-COAO    ',   0.0000,1,     0.000,     0.000,  17,   1,0.95977,  -2.2066,   1
   286,'XXCCCOAC    ',   0.0000,1,     0.000,   -50.000,  17,   1,1.00874,  12.0534,   1
   287,'XXA-COAO    ',   0.0000,1,     0.000,     0.000,  17,   1,0.97045,  -4.8363,   1
   288,'XXCOOACC    ',   0.0000,1,     0.000,     0.000,  17,   1,1.03721,   6.0704,   1
   289,'XXAACCCC    ',   0.0000,2,     0.000,     0.000,  17,   1,1.03227,   1.6493,   1
   290,'XXCAOCCA    ',   0.0000,1,     0.000,     0.000,  17,   1,1.00385,  -4.3549,   1
   291,'XXAOCCCO    ',   0.0000,1,     0.000,     0.000,  17,   1,1.00100,  -4.8414,   1
   292,'XXCOCCAC    ',   0.0000,1,     0.000,     0.000,  17,   1,1.04481,   6.5243,   1
   293,'XXOOOACO    ',   0.0000,1,     0.000,     0.000,  17,   1,1.03798,   8.1402,   1
   294,'XXOOOACO    ',   0.0000,2,     0.000,     0.000,  17,   1,1.01000,  12.0919,   1
   295,'XXOOOCOO    ',   0.0000,2,     0.000,     0.000,  17,   1,1.03008,   3.3996,   1
   296,'XXOCCAOA    ',   0.0000,1,     0.000,    17.400,  17,   1,1.01040,   9.5472,   1
   297,'XXAOAAOA    ',   0.0000,2,     0.000,     0.000,  17,   1,1.02722,   3.3510,   1
   298,'XXCCCCAC    ',   0.0000,2,     0.000,     0.000,  17,   1,1.03626,   4.2633,   1
   299,'XXCCACCO    ',   0.0000,2,     0.000,     3.000,  17,   1,1.04355,   3.6055,   1
   300,'XXCCACCO    ',   0.0000,1,     0.000,     0.000,  17,   1,1.00684,   3.1300,   1
   301,'XXCCACCO    ',   0.0000,1,     0.000,     0.000,  17,   1,1.01045,   4.2614,   1
   302,'XXCCACCO    ',   0.0000,1,     0.000,     0.000,  17,   1,1.00742,   6.2537,   1
   303,'XXOACOAC    ',   0.0000,2,     0.000,     0.000,  17,   1,1.02000,  15.0615,   1
   304,'XXOOACAC    ',   0.0000,1,     0.000,     0.000,  17,   1,1.03428,   6.0978,   1
   305,'XXCCOOOC    ',   0.0000,1,     0.000,     0.000,  17,   1,1.02071,  10.3638,   1
   306,'XXAOCCAC    ',   0.0000,1,     0.000,     0.000,  17,   1,1.04493,   7.3678,   1
   307,'XXAAOCOY    ',   0.0000,1,     0.000,     0.000,  17,   1,1.05073,   8.1871,   1
   308,'XXACAOCO    ',   0.0000,1,     0.000,     0.000,  17,   1,1.05168,   8.3168,   1
   309,'XXACAOCO    ',   0.0000,1,     0.000,     0.000,  17,   1,1.04109,  10.1143,   1
   310,'XXACAOCO    ',   0.0000,1,     0.000,     0.000,  17,   1,1.01386,  12.4740,   1
   311,'XXACOOCA    ',   0.0000,1,     0.000,     0.000,  17,   1,1.04087,   6.8250,   1
   312,'XXOOOACO    ',   0.0000,1,     0.000,     0.000,  17,   1,1.03577,   9.1145,   1
   313,'XXOOOCCO    ',   0.0000,1,     0.000,     0.000,  17,   1,0.99865,   4.7528,   1
   314,'XXOOOCCC    ',   0.0000,2,     0.000,     0.000,  17,   1,1.01000,  11.3137,   1
   315,'XXOOOCCC    ',   0.0000,1,     0.000,     0.000,  17,   1,1.04969,   8.1547,   1
   316,'XXOCOCCO    ',   0.0000,1,     0.000,    10.800,  17,   1,1.03982,   6.4124,   1
   317,'XXOCOCOO    ',   0.0000,1,     0.000,     0.000,  17,   1,1.04936,   8.1123,   1
   318,'XXCOCOOO    ',   0.0000,1,     0.000,     0.000,  17,   1,1.03727,   6.5630,   1
   319,'XXOOOCCO    ',   0.0000,1,     0.000,     0.000,  17,   1,1.04107,   6.5561,   1
   320,'XXCOOACC    ',   0.0000,1,     0.000,     0.000,  17,   1,1.03616,   5.9037,   1
   321,'XXCACCOC    ',   0.0000,1,     0.000,     0.000,  17,   1,1.04099,   6.1959,   1
   322,'XXACOACY    ',   0.0000,1,     0.000,     0.000,  17,   1,1.03788,   5.9734,   1
   323,'XXACAOOO    ',   0.0000,1,     0.000,     0.000,  17,   1,0.99491,   9.9077,   1
   324,'XXACAOOO    ',   0.0000,1,     0.000,     0.000,  17,   1,1.05118,   7.0849,   1
   325,'XXOCAAOC    ',   0.0000,1,     0.000,    21.600,  17,   1,1.04542,   6.5811,   1
   326,'XXCCYAOO    ',   0.0000,1,     0.000,    21.600,  17,   1,1.04319,   6.4462,   1
   327,'XXOOCOCC    ',   0.0000,2,     0.000,     0.000,  17,   1,1.04300,   6.8707,   1
   328,'XXCOAOOA    ',   0.0000,1,     0.000,     0.000,  17,   1,1.03775,   6.3724,   1
   329,'XXAOOAOO    ',   0.0000,1,     0.000,    10.800,  17,   1,1.03901,   6.5041,   1
   330,'XXCCOOCC    ',   0.0000,1,     0.000,    10.800,  17,   1,1.03760,   6.3466,   1
   331,'XXAOAAOA    ',   0.0000,1,     0.000,    10.800,  17,   1,1.03842,   6.0025,   1