  1 'GENROU' 1  8.960000  0.030000  0.310000  0.050000  4.728000  0.000000  0.730000
  0.484500  0.304000  0.484500  0.200000  0.150000  0.000000  0.000000  /
  1 'IEEET1' 1  0  20  0.2  3  -3  1  0.314  0.063  0.35  0  2.8  0.30338  3.73  1.2884  /
  2 'GENROU' 1  6.000000  0.030000  0.535000  0.050000  2.560000  0.000000  2.239500
  2.161000  0.299500  0.492250  0.225000  0.150000  0.000000  0.000000  /
  2 'IEEET1' 1  0  20  0.2  3  -3  1  0.314  0.063  0.35  0  2.8  0.30338  3.73  1.2884  /
  3 'GENROU' 1  5.890000  0.030000  0.600000  0.050000  3.010000  0.000000  1.312500
  1.257800  0.181300  0.250000  0.150000  0.120000  0.000000  0.000000  /
  3 'IEEET1' 1  0  20  0.2  3  -3  1  0.314  0.063  0.35  0  2.8  0.3034  3.73  1.2884  /
